Circuit: * C:\Users\User\Desktop\Misc\Speaker Design\Power Supply\Draft2.asc

Direct Newton iteration for .op point succeeded.

Date: Tue Dec 28 12:11:05 2021
Total elapsed time: 0.049 seconds.

tnom = 27
temp = 27
method = modified trap
totiter = 2091
traniter = 2088
tranpoints = 1045
accept = 1045
rejected = 0
matrix size = 3
fillins = 0
solver = Normal
Matrix Compiler1: 86 bytes object code size  0.0/0.0/[0.0]
Matrix Compiler2: 163 bytes object code size  0.0/0.1/[0.0]

