Circuit: * C:\Users\User\Desktop\Speaker Amplifier\Power_Conditioner\Sim\Draft1.asc

Per .tran options, skipping operating point for transient analysis.
Changing Tseed to 1e-009

Date: Sun Jan 02 19:48:02 2022
Total elapsed time: 125.570 seconds.

tnom = 27
temp = 27
method = modified trap
totiter = 14212678
traniter = 14212678
tranpoints = 4680919
accept = 3318788
rejected = 1362130
matrix size = 39
fillins = 23
solver = Normal
Matrix Compiler1:     258 opcodes  0.7/[0.3]/0.3
Matrix Compiler2: off  [0.2]/0.3/0.3

